
Version,
  22.2;                                   !- Version Identifier

Timestep,
  6;                                      !- Number of Timesteps per Hour

LifeCycleCost:Parameters,
  Life Cycle Cost Parameters,             !- Name
  EndOfYear,                              !- Discounting Convention
  ConstantDollar,                         !- Inflation Approach
  0.03,                                   !- Real Discount Rate
  ,                                       !- Nominal Discount Rate
  ,                                       !- Inflation
  ,                                       !- Base Date Month
  2011,                                   !- Base Date Year
  ,                                       !- Service Date Month
  2011,                                   !- Service Date Year
  25,                                     !- Length of Study Period in Years
  ,                                       !- Tax rate
  None;                                   !- Depreciation Method

LifeCycleCost:UsePriceEscalation,
  U.S. Avg  Commercial-Electricity,       !- Name
  Electricity,                            !- Resource
  2011,                                   !- Escalation Start Year
  January,                                !- Escalation Start Month
  0.9838,                                 !- Year Escalation 1
  0.9730,                                 !- Year Escalation 2
  0.9632,                                 !- Year Escalation 3
  0.9611,                                 !- Year Escalation 4
  0.9571,                                 !- Year Escalation 5
  0.9553,                                 !- Year Escalation 6
  0.9539,                                 !- Year Escalation 7
  0.9521,                                 !- Year Escalation 8
  0.9546,                                 !- Year Escalation 9
  0.9550,                                 !- Year Escalation 10
  0.9553,                                 !- Year Escalation 11
  0.9564,                                 !- Year Escalation 12
  0.9575,                                 !- Year Escalation 13
  0.9596,                                 !- Year Escalation 14
  0.9618,                                 !- Year Escalation 15
  0.9614,                                 !- Year Escalation 16
  0.9618,                                 !- Year Escalation 17
  0.9618,                                 !- Year Escalation 18
  0.9593,                                 !- Year Escalation 19
  0.9589,                                 !- Year Escalation 20
  0.9607,                                 !- Year Escalation 21
  0.9625,                                 !- Year Escalation 22
  0.9650,                                 !- Year Escalation 23
  0.9708,                                 !- Year Escalation 24
  0.9751,                                 !- Year Escalation 25
  0.9762,                                 !- Year Escalation 26
  0.9766,                                 !- Year Escalation 27
  0.9766,                                 !- Year Escalation 28
  0.9769,                                 !- Year Escalation 29
  0.9773;                                 !- Year Escalation 30

LifeCycleCost:UsePriceEscalation,
  U.S. Avg  Commercial-Distillate Oil,    !- Name
  FuelOilNo1,                             !- Resource
  2011,                                   !- Escalation Start Year
  January,                                !- Escalation Start Month
  0.9714,                                 !- Year Escalation 1
  0.9730,                                 !- Year Escalation 2
  0.9942,                                 !- Year Escalation 3
  1.0164,                                 !- Year Escalation 4
  1.0541,                                 !- Year Escalation 5
  1.0928,                                 !- Year Escalation 6
  1.1267,                                 !- Year Escalation 7
  1.1580,                                 !- Year Escalation 8
  1.1792,                                 !- Year Escalation 9
  1.1967,                                 !- Year Escalation 10
  1.2200,                                 !- Year Escalation 11
  1.2333,                                 !- Year Escalation 12
  1.2566,                                 !- Year Escalation 13
  1.2709,                                 !- Year Escalation 14
  1.2826,                                 !- Year Escalation 15
  1.2985,                                 !- Year Escalation 16
  1.3102,                                 !- Year Escalation 17
  1.3250,                                 !- Year Escalation 18
  1.3261,                                 !- Year Escalation 19
  1.3282,                                 !- Year Escalation 20
  1.3324,                                 !- Year Escalation 21
  1.3356,                                 !- Year Escalation 22
  1.3431,                                 !- Year Escalation 23
  1.3510,                                 !- Year Escalation 24
  1.3568,                                 !- Year Escalation 25
  1.3606,                                 !- Year Escalation 26
  1.3637,                                 !- Year Escalation 27
  1.3674,                                 !- Year Escalation 28
  1.3706,                                 !- Year Escalation 29
  1.3743;                                 !- Year Escalation 30

LifeCycleCost:UsePriceEscalation,
  U.S. Avg  Commercial-Residual Oil,      !- Name
  FuelOilNo2,                             !- Resource
  2011,                                   !- Escalation Start Year
  January,                                !- Escalation Start Month
  0.8469,                                 !- Year Escalation 1
  0.8257,                                 !- Year Escalation 2
  0.8681,                                 !- Year Escalation 3
  0.8988,                                 !- Year Escalation 4
  0.9289,                                 !- Year Escalation 5
  0.9604,                                 !- Year Escalation 6
  0.9897,                                 !- Year Escalation 7
  1.0075,                                 !- Year Escalation 8
  1.0314,                                 !- Year Escalation 9
  1.0554,                                 !- Year Escalation 10
  1.0861,                                 !- Year Escalation 11
  1.1278,                                 !- Year Escalation 12
  1.1497,                                 !- Year Escalation 13
  1.1620,                                 !- Year Escalation 14
  1.1743,                                 !- Year Escalation 15
  1.1852,                                 !- Year Escalation 16
  1.1948,                                 !- Year Escalation 17
  1.2037,                                 !- Year Escalation 18
  1.2071,                                 !- Year Escalation 19
  1.2119,                                 !- Year Escalation 20
  1.2139,                                 !- Year Escalation 21
  1.2194,                                 !- Year Escalation 22
  1.2276,                                 !- Year Escalation 23
  1.2365,                                 !- Year Escalation 24
  1.2420,                                 !- Year Escalation 25
  1.2461,                                 !- Year Escalation 26
  1.2509,                                 !- Year Escalation 27
  1.2550,                                 !- Year Escalation 28
  1.2591,                                 !- Year Escalation 29
  1.2638;                                 !- Year Escalation 30

LifeCycleCost:UsePriceEscalation,
  U.S. Avg  Commercial-Natural gas,       !- Name
  NaturalGas,                             !- Resource
  2011,                                   !- Escalation Start Year
  January,                                !- Escalation Start Month
  0.9823,                                 !- Year Escalation 1
  0.9557,                                 !- Year Escalation 2
  0.9279,                                 !- Year Escalation 3
  0.9257,                                 !- Year Escalation 4
  0.9346,                                 !- Year Escalation 5
  0.9412,                                 !- Year Escalation 6
  0.9512,                                 !- Year Escalation 7
  0.9645,                                 !- Year Escalation 8
  0.9856,                                 !- Year Escalation 9
  1.0067,                                 !- Year Escalation 10
  1.0222,                                 !- Year Escalation 11
  1.0410,                                 !- Year Escalation 12
  1.0610,                                 !- Year Escalation 13
  1.0787,                                 !- Year Escalation 14
  1.0942,                                 !- Year Escalation 15
  1.1098,                                 !- Year Escalation 16
  1.1220,                                 !- Year Escalation 17
  1.1308,                                 !- Year Escalation 18
  1.1386,                                 !- Year Escalation 19
  1.1486,                                 !- Year Escalation 20
  1.1619,                                 !- Year Escalation 21
  1.1763,                                 !- Year Escalation 22
  1.1918,                                 !- Year Escalation 23
  1.2118,                                 !- Year Escalation 24
  1.2284,                                 !- Year Escalation 25
  1.2439,                                 !- Year Escalation 26
  1.2605,                                 !- Year Escalation 27
  1.2772,                                 !- Year Escalation 28
  1.2938,                                 !- Year Escalation 29
  1.3115;                                 !- Year Escalation 30

LifeCycleCost:UsePriceEscalation,
  U.S. Avg  Commercial-Coal,              !- Name
  Coal,                                   !- Resource
  2011,                                   !- Escalation Start Year
  January,                                !- Escalation Start Month
  0.9970,                                 !- Year Escalation 1
  1.0089,                                 !- Year Escalation 2
  1.0089,                                 !- Year Escalation 3
  0.9941,                                 !- Year Escalation 4
  0.9941,                                 !- Year Escalation 5
  1.0000,                                 !- Year Escalation 6
  1.0030,                                 !- Year Escalation 7
  1.0059,                                 !- Year Escalation 8
  1.0089,                                 !- Year Escalation 9
  1.0119,                                 !- Year Escalation 10
  1.0148,                                 !- Year Escalation 11
  1.0178,                                 !- Year Escalation 12
  1.0208,                                 !- Year Escalation 13
  1.0267,                                 !- Year Escalation 14
  1.0297,                                 !- Year Escalation 15
  1.0356,                                 !- Year Escalation 16
  1.0415,                                 !- Year Escalation 17
  1.0534,                                 !- Year Escalation 18
  1.0564,                                 !- Year Escalation 19
  1.0593,                                 !- Year Escalation 20
  1.0653,                                 !- Year Escalation 21
  1.0712,                                 !- Year Escalation 22
  1.0742,                                 !- Year Escalation 23
  1.0801,                                 !- Year Escalation 24
  1.0831,                                 !- Year Escalation 25
  1.0831,                                 !- Year Escalation 26
  1.0861,                                 !- Year Escalation 27
  1.0890,                                 !- Year Escalation 28
  1.0920,                                 !- Year Escalation 29
  1.0950;                                 !- Year Escalation 30

Building,
  Building 1,                             !- Name
  0,                                      !- North Axis {deg}
  City,                                   !- Terrain
  ,                                       !- Loads Convergence Tolerance Value {W}
  ,                                       !- Temperature Convergence Tolerance Value {deltaC}
  FullExteriorWithReflections,            !- Solar Distribution
  ,                                       !- Maximum Number of Warmup Days
  ;                                       !- Minimum Number of Warmup Days

Zone,
  classroom_9d637254,                     !- Name
  ,                                       !- Direction of Relative North {deg}
  0,                                      !- X Origin {m}
  0,                                      !- Y Origin {m}
  0,                                      !- Z Origin {m}
  ,                                       !- Type
  1,                                      !- Multiplier
  3.6,                                    !- Ceiling Height {m}
  252.72,                                 !- Volume {m3}
  ,                                       !- Floor Area {m2}
  ,                                       !- Zone Inside Convection Algorithm
  ,                                       !- Zone Outside Convection Algorithm
  Yes;                                    !- Part of Total Floor Area

Space,
  classroom_9d637254_Space,               !- Name
  classroom_9d637254,                     !- Zone Name
  ,                                       !- Ceiling Height {m}
  ,                                       !- Volume {m3}
  ,                                       !- Floor Area {m2}
  ProgramType_8ee359b2;                   !- Space Type

SpaceList,
  ProgramType_8ee359b2,                   !- Name
  classroom_9d637254_Space;               !- Space Name 1

People,
  People_56f112ee,                        !- Name
  ProgramType_8ee359b2,                   !- Zone or ZoneList or Space or SpaceList Name
  WeeklySchedule_7b9ee703,                !- Number of People Schedule Name
  People/Area,                            !- Number of People Calculation Method
  ,                                       !- Number of People
  0.167,                                  !- People per Floor Area {person/m2}
  ,                                       !- Floor Area per Person {m2/person}
  0.3,                                    !- Fraction Radiant
  ,                                       !- Sensible Heat Fraction
  Seated Adult Activity;                  !- Activity Level Schedule Name

ScheduleTypeLimits,
  Fractional,                             !- Name
  0,                                      !- Lower Limit Value {BasedOnField A3}
  1,                                      !- Upper Limit Value {BasedOnField A3}
  Continuous,                             !- Numeric Type
  dimensionless;                          !- Unit Type

Schedule:Day:Interval,
  WeeklySchedule_7b9ee703_Sunday,         !- Name
  Fractional,                             !- Schedule Type Limits Name
  No,                                     !- Interpolate to Timestep
  24:00,                                  !- Time 1 {hh:mm}
  0;                                      !- Value Until Time 1

Schedule:Day:Interval,
  Schedule Day 1,                         !- Name
  Fractional,                             !- Schedule Type Limits Name
  No,                                     !- Interpolate to Timestep
  07:00,                                  !- Time 1 {hh:mm}
  0,                                      !- Value Until Time 1
  08:00,                                  !- Time 2 {hh:mm}
  0.1,                                    !- Value Until Time 2
  09:00,                                  !- Time 3 {hh:mm}
  0.5,                                    !- Value Until Time 3
  12:00,                                  !- Time 4 {hh:mm}
  0.95,                                   !- Value Until Time 4
  14:00,                                  !- Time 5 {hh:mm}
  0.8,                                    !- Value Until Time 5
  18:00,                                  !- Time 6 {hh:mm}
  0.95,                                   !- Value Until Time 6
  20:00,                                  !- Time 7 {hh:mm}
  0.3,                                    !- Value Until Time 7
  24:00,                                  !- Time 8 {hh:mm}
  0;                                      !- Value Until Time 8

Schedule:Week:Daily,
  WeeklySchedule_7b9ee703 Week Rule - Jan1-Dec31, !- Name
  WeeklySchedule_7b9ee703_Sunday,         !- Sunday Schedule:Day Name
  Schedule Day 1,                         !- Monday Schedule:Day Name
  Schedule Day 1,                         !- Tuesday Schedule:Day Name
  Schedule Day 1,                         !- Wednesday Schedule:Day Name
  Schedule Day 1,                         !- Thursday Schedule:Day Name
  Schedule Day 1,                         !- Friday Schedule:Day Name
  WeeklySchedule_7b9ee703_Sunday,         !- Saturday Schedule:Day Name
  WeeklySchedule_7b9ee703_Hol 1,          !- Holiday Schedule:Day Name
  WeeklySchedule_7b9ee703_Monday_SmrDsn 1, !- SummerDesignDay Schedule:Day Name
  WeeklySchedule_7b9ee703_Monday_SmrDsn_WntrDsn 1, !- WinterDesignDay Schedule:Day Name
  WeeklySchedule_7b9ee703_Sunday,         !- CustomDay1 Schedule:Day Name
  WeeklySchedule_7b9ee703_Sunday;         !- CustomDay2 Schedule:Day Name

Schedule:Year,
  WeeklySchedule_7b9ee703,                !- Name
  Fractional,                             !- Schedule Type Limits Name
  WeeklySchedule_7b9ee703 Week Rule - Jan1-Dec31, !- Schedule:Week Name 1
  1,                                      !- Start Month 1
  1,                                      !- Start Day 1
  12,                                     !- End Month 1
  31;                                     !- End Day 1

Schedule:Day:Interval,
  WeeklySchedule_7b9ee703_Monday_SmrDsn 1, !- Name
  Fractional,                             !- Schedule Type Limits Name
  No,                                     !- Interpolate to Timestep
  07:00,                                  !- Time 1 {hh:mm}
  0,                                      !- Value Until Time 1
  08:00,                                  !- Time 2 {hh:mm}
  0.1,                                    !- Value Until Time 2
  09:00,                                  !- Time 3 {hh:mm}
  0.5,                                    !- Value Until Time 3
  12:00,                                  !- Time 4 {hh:mm}
  0.95,                                   !- Value Until Time 4
  14:00,                                  !- Time 5 {hh:mm}
  0.8,                                    !- Value Until Time 5
  18:00,                                  !- Time 6 {hh:mm}
  0.95,                                   !- Value Until Time 6
  20:00,                                  !- Time 7 {hh:mm}
  0.3,                                    !- Value Until Time 7
  24:00,                                  !- Time 8 {hh:mm}
  0;                                      !- Value Until Time 8

Schedule:Day:Interval,
  WeeklySchedule_7b9ee703_Monday_SmrDsn_WntrDsn 1, !- Name
  Fractional,                             !- Schedule Type Limits Name
  No,                                     !- Interpolate to Timestep
  24:00,                                  !- Time 1 {hh:mm}
  0;                                      !- Value Until Time 1

Schedule:Day:Interval,
  WeeklySchedule_7b9ee703_Hol 1,          !- Name
  Fractional,                             !- Schedule Type Limits Name
  No,                                     !- Interpolate to Timestep
  24:00,                                  !- Time 1 {hh:mm}
  0;                                      !- Value Until Time 1

ScheduleTypeLimits,
  Activity Level,                         !- Name
  0,                                      !- Lower Limit Value {BasedOnField A3}
  ,                                       !- Upper Limit Value {BasedOnField A3}
  Continuous,                             !- Numeric Type
  activitylevel;                          !- Unit Type

Schedule:Day:Interval,
  Seated Adult Activity_Day Schedule,     !- Name
  Activity Level,                         !- Schedule Type Limits Name
  No,                                     !- Interpolate to Timestep
  24:00,                                  !- Time 1 {hh:mm}
  120;                                    !- Value Until Time 1

Schedule:Week:Daily,
  Seated Adult Activity Week Rule - Jan1-Dec31, !- Name
  Seated Adult Activity_Day Schedule,     !- Sunday Schedule:Day Name
  Seated Adult Activity_Day Schedule,     !- Monday Schedule:Day Name
  Seated Adult Activity_Day Schedule,     !- Tuesday Schedule:Day Name
  Seated Adult Activity_Day Schedule,     !- Wednesday Schedule:Day Name
  Seated Adult Activity_Day Schedule,     !- Thursday Schedule:Day Name
  Seated Adult Activity_Day Schedule,     !- Friday Schedule:Day Name
  Seated Adult Activity_Day Schedule,     !- Saturday Schedule:Day Name
  Seated Adult Activity_Day Schedule,     !- Holiday Schedule:Day Name
  Seated Adult Activity_Day Schedule,     !- SummerDesignDay Schedule:Day Name
  Seated Adult Activity_Day Schedule,     !- WinterDesignDay Schedule:Day Name
  Seated Adult Activity_Day Schedule,     !- CustomDay1 Schedule:Day Name
  Seated Adult Activity_Day Schedule;     !- CustomDay2 Schedule:Day Name

Schedule:Year,
  Seated Adult Activity,                  !- Name
  Activity Level,                         !- Schedule Type Limits Name
  Seated Adult Activity Week Rule - Jan1-Dec31, !- Schedule:Week Name 1
  1,                                      !- Start Month 1
  1,                                      !- Start Day 1
  12,                                     !- End Month 1
  31;                                     !- End Day 1

BuildingSurface:Detailed,
  classroom_9d637254..Face0,              !- Name
  Floor,                                  !- Surface Type
  Typical Insulated Carpeted 8in Slab Floor, !- Construction Name
  classroom_9d637254,                     !- Zone Name
  classroom_9d637254_Space,               !- Space Name
  Ground,                                 !- Outside Boundary Condition
  ,                                       !- Outside Boundary Condition Object
  NoSun,                                  !- Sun Exposure
  NoWind,                                 !- Wind Exposure
  ,                                       !- View Factor to Ground
  ,                                       !- Number of Vertices
  9, 3.5, 0,                              !- X,Y,Z Vertex 1 {m}
  9, -4, 0,                               !- X,Y,Z Vertex 2 {m}
  0, -4, 0,                               !- X,Y,Z Vertex 3 {m}
  0, 3.5, 0,                              !- X,Y,Z Vertex 4 {m}
  1.8, 3.5, 0,                            !- X,Y,Z Vertex 5 {m}
  1.8, 4, 0,                              !- X,Y,Z Vertex 6 {m}
  7.2, 4, 0,                              !- X,Y,Z Vertex 7 {m}
  7.2, 3.5, 0;                            !- X,Y,Z Vertex 8 {m}

BuildingSurface:Detailed,
  classroom_9d637254..Face1,              !- Name
  Wall,                                   !- Surface Type
  Typical Insulated Exterior Mass Wall-R9, !- Construction Name
  classroom_9d637254,                     !- Zone Name
  classroom_9d637254_Space,               !- Space Name
  Outdoors,                               !- Outside Boundary Condition
  ,                                       !- Outside Boundary Condition Object
  SunExposed,                             !- Sun Exposure
  WindExposed,                            !- Wind Exposure
  ,                                       !- View Factor to Ground
  ,                                       !- Number of Vertices
  7.2, 3.5, 3.6,                          !- X,Y,Z Vertex 1 {m}
  7.2, 3.5, 0,                            !- X,Y,Z Vertex 2 {m}
  7.2, 4, 0,                              !- X,Y,Z Vertex 3 {m}
  7.2, 4, 3.6;                            !- X,Y,Z Vertex 4 {m}

BuildingSurface:Detailed,
  classroom_9d637254..Face2,              !- Name
  Wall,                                   !- Surface Type
  Typical Insulated Exterior Mass Wall-R9, !- Construction Name
  classroom_9d637254,                     !- Zone Name
  classroom_9d637254_Space,               !- Space Name
  Outdoors,                               !- Outside Boundary Condition
  ,                                       !- Outside Boundary Condition Object
  SunExposed,                             !- Sun Exposure
  WindExposed,                            !- Wind Exposure
  ,                                       !- View Factor to Ground
  ,                                       !- Number of Vertices
  9, 3.5, 3.6,                            !- X,Y,Z Vertex 1 {m}
  9, 3.5, 0,                              !- X,Y,Z Vertex 2 {m}
  7.2, 3.5, 0,                            !- X,Y,Z Vertex 3 {m}
  7.2, 3.5, 3.6;                          !- X,Y,Z Vertex 4 {m}

FenestrationSurface:Detailed,
  Door_c0697cd3,                          !- Name
  Door,                                   !- Surface Type
  Typical Insulated Metal Door-R3,        !- Construction Name
  classroom_9d637254..Face2,              !- Building Surface Name
  ,                                       !- Outside Boundary Condition Object
  ,                                       !- View Factor to Ground
  ,                                       !- Frame and Divider Name
  ,                                       !- Multiplier
  ,                                       !- Number of Vertices
  8.6, 3.5, 2.101,                        !- X,Y,Z Vertex 1 {m}
  8.6, 3.5, 0.001,                        !- X,Y,Z Vertex 2 {m}
  7.6, 3.5, 0.001,                        !- X,Y,Z Vertex 3 {m}
  7.6, 3.5, 2.101;                        !- X,Y,Z Vertex 4 {m}

BuildingSurface:Detailed,
  classroom_9d637254..Face3,              !- Name
  Wall,                                   !- Surface Type
  Typical Insulated Exterior Mass Wall-R9, !- Construction Name
  classroom_9d637254,                     !- Zone Name
  classroom_9d637254_Space,               !- Space Name
  Outdoors,                               !- Outside Boundary Condition
  ,                                       !- Outside Boundary Condition Object
  SunExposed,                             !- Sun Exposure
  WindExposed,                            !- Wind Exposure
  ,                                       !- View Factor to Ground
  ,                                       !- Number of Vertices
  9, -4, 3.6,                             !- X,Y,Z Vertex 1 {m}
  9, -4, 0,                               !- X,Y,Z Vertex 2 {m}
  9, 3.5, 0,                              !- X,Y,Z Vertex 3 {m}
  9, 3.5, 3.6;                            !- X,Y,Z Vertex 4 {m}

BuildingSurface:Detailed,
  classroom_9d637254..Face4,              !- Name
  Wall,                                   !- Surface Type
  Typical Insulated Exterior Mass Wall-R9, !- Construction Name
  classroom_9d637254,                     !- Zone Name
  classroom_9d637254_Space,               !- Space Name
  Outdoors,                               !- Outside Boundary Condition
  ,                                       !- Outside Boundary Condition Object
  SunExposed,                             !- Sun Exposure
  WindExposed,                            !- Wind Exposure
  ,                                       !- View Factor to Ground
  ,                                       !- Number of Vertices
  0, -4, 3.6,                             !- X,Y,Z Vertex 1 {m}
  0, -4, 0,                               !- X,Y,Z Vertex 2 {m}
  9, -4, 0,                               !- X,Y,Z Vertex 3 {m}
  9, -4, 3.6;                             !- X,Y,Z Vertex 4 {m}

FenestrationSurface:Detailed,
  Aperture_70e2b756,                      !- Name
  Window,                                 !- Surface Type
  U 0.42 SHGC 0.25 Simple Glazing Window, !- Construction Name
  classroom_9d637254..Face4,              !- Building Surface Name
  ,                                       !- Outside Boundary Condition Object
  ,                                       !- View Factor to Ground
  ,                                       !- Frame and Divider Name
  ,                                       !- Multiplier
  ,                                       !- Number of Vertices
  3.75, -4, 2.4,                          !- X,Y,Z Vertex 1 {m}
  3.75, -4, 1.2,                          !- X,Y,Z Vertex 2 {m}
  5.25, -4, 1.2,                          !- X,Y,Z Vertex 3 {m}
  5.25, -4, 2.4;                          !- X,Y,Z Vertex 4 {m}

FenestrationSurface:Detailed,
  Aperture_999cce4a,                      !- Name
  Window,                                 !- Surface Type
  U 0.42 SHGC 0.25 Simple Glazing Window, !- Construction Name
  classroom_9d637254..Face4,              !- Building Surface Name
  ,                                       !- Outside Boundary Condition Object
  ,                                       !- View Factor to Ground
  ,                                       !- Frame and Divider Name
  ,                                       !- Multiplier
  ,                                       !- Number of Vertices
  1.65, -4, 2.4,                          !- X,Y,Z Vertex 1 {m}
  1.65, -4, 1.2,                          !- X,Y,Z Vertex 2 {m}
  3.15, -4, 1.2,                          !- X,Y,Z Vertex 3 {m}
  3.15, -4, 2.4;                          !- X,Y,Z Vertex 4 {m}

FenestrationSurface:Detailed,
  Aperture_a57e415c,                      !- Name
  Window,                                 !- Surface Type
  U 0.42 SHGC 0.25 Simple Glazing Window, !- Construction Name
  classroom_9d637254..Face4,              !- Building Surface Name
  ,                                       !- Outside Boundary Condition Object
  ,                                       !- View Factor to Ground
  ,                                       !- Frame and Divider Name
  ,                                       !- Multiplier